File C:\Users\Usuario\Documents\DOCTORADO_CODES\MOVA_plugins\src\examples\Geometry_MultiSetup.$2k was saved on m/d/yy at h:mm:ss
 
TABLE:  "ACTIVE DEGREES OF FREEDOM"
   UX=Yes   UY=Yes   UZ=Yes   RX=Yes   RY=Yes   RZ=Yes
 
TABLE:  "ANALYSIS OPTIONS"
   Solver=Advanced   SolverProc=Auto   Force32Bit=No   StiffCase=None   GeomMod=None   HingeOpt="In Elements"   NumAThreads=0   MaxFileSize=0   NumDThreads=0   NumRThreads=0   UseMMFiles="Program Determined"   AllowDiff=No
 
TABLE:  "AUTO WAVE 3 - WAVE CHARACTERISTICS - GENERAL"
   WaveChar=Default   WaveType="From Theory"   KinFactor=1   SWaterDepth=45   WaveHeight=18   WavePeriod=12   WaveTheory=Linear
 
TABLE:  "CASE - MODAL 1 - GENERAL"
   Case=MODAL   ModeType=Eigen   MaxNumModes=12   MinNumModes=1   EigenShift=0   EigenCutoff=0   EigenTol=1E-09   AutoShift=Yes
 
TABLE:  "CASE - STATIC 1 - LOAD ASSIGNMENTS"
   Case=DEAD   LoadType="Load pattern"   LoadName=DEAD   LoadSF=1
   Case=References   LoadType="Load pattern"   LoadName=References   LoadSF=1
   Case=Setup_1   LoadType="Load pattern"   LoadName=Setup_1   LoadSF=1
   Case=Setup_2   LoadType="Load pattern"   LoadName=Setup_2   LoadSF=1
 
TABLE:  "CONNECTIVITY - FRAME"
   Frame=1   JointI=1   JointJ=2   IsCurved=No   GUID=734f9f30-fdcd-49c9-a70d-53fca0da887b
   Frame=2   JointI=2   JointJ=3   IsCurved=No   GUID=f89fc505-eae8-4682-965e-4c58352a6a88
   Frame=3   JointI=4   JointJ=5   IsCurved=No   GUID=1828302a-db60-4874-a33e-3b854bfa3eaa
   Frame=4   JointI=5   JointJ=6   IsCurved=No   GUID=1e20b212-1494-485e-96fa-d1a961b21463
   Frame=5   JointI=7   JointJ=8   IsCurved=No   GUID=7d7a1fbd-460b-4ce1-868e-240c690728b3
   Frame=6   JointI=8   JointJ=9   IsCurved=No   GUID=67a1ddb4-20b9-4298-ac50-14ce4a33aca7
   Frame=7   JointI=10   JointJ=11   IsCurved=No   GUID=43c45eab-5f17-4301-8c8c-6b166119a2cb
   Frame=8   JointI=11   JointJ=12   IsCurved=No   GUID=7359e788-91b2-4ea2-9442-aadf38334c6b
   Frame=9   JointI=13   JointJ=14   IsCurved=No   GUID=ac3c7ded-c2aa-464f-ac30-2f1a2e4e9e26
   Frame=10   JointI=14   JointJ=15   IsCurved=No   GUID=31b692fb-a2ae-46e0-adfb-bd1f6a00f9f4
   Frame=11   JointI=16   JointJ=17   IsCurved=No   GUID=d0af0cd7-dab7-4217-a354-403e063db982
   Frame=12   JointI=17   JointJ=18   IsCurved=No   GUID=71d517c0-899c-43b5-ae7c-7eb52c5a204e
   Frame=13   JointI=19   JointJ=20   IsCurved=No   GUID=3b87558e-f918-4293-99f6-2bfcdf3afcde
   Frame=14   JointI=20   JointJ=21   IsCurved=No   GUID=191b44d0-a250-49bc-a635-9aeaa0bba6ca
   Frame=15   JointI=22   JointJ=23   IsCurved=No   GUID=0fc0d47f-9244-4cc7-9799-903fcad53366
   Frame=16   JointI=23   JointJ=24   IsCurved=No   GUID=eb58ea7b-d41a-4f24-a974-551de0035c84
   Frame=17   JointI=25   JointJ=26   IsCurved=No   GUID=2e37e410-af4d-41f0-a819-1f58d5e63875
   Frame=18   JointI=26   JointJ=27   IsCurved=No   GUID=99deda31-7c5b-482f-bcf3-229eda9037ce
   Frame=19   JointI=28   JointJ=29   IsCurved=No   GUID=56fe8a10-e57b-47f6-9419-4287f96eaa41
   Frame=20   JointI=29   JointJ=30   IsCurved=No   GUID=0d31d827-2cc1-4a6a-bd15-61f870645c0c
   Frame=21   JointI=31   JointJ=32   IsCurved=No   GUID=cb632797-f18e-4860-8001-1b44f243eb95
   Frame=22   JointI=32   JointJ=33   IsCurved=No   GUID=8056db74-f090-4ce8-b510-231952f0766a
   Frame=23   JointI=34   JointJ=35   IsCurved=No   GUID=14778715-7c2c-4971-8b6b-fe63eb8eb125
   Frame=24   JointI=35   JointJ=36   IsCurved=No   GUID=87f81569-adef-4ba4-b72e-47bf0bb6cd55
   Frame=25   JointI=2   JointJ=11   IsCurved=No   GUID=146ebcc7-034a-41d0-b736-4d5e1a294d91
   Frame=26   JointI=3   JointJ=12   IsCurved=No   GUID=6638d7d5-c663-4ba8-9683-912fa44e2ffd
   Frame=27   JointI=11   JointJ=20   IsCurved=No   GUID=1649377d-b586-486c-8d74-58f5fdd00a62
   Frame=28   JointI=12   JointJ=21   IsCurved=No   GUID=805a8bde-a933-40e7-b8cc-4f2c9e04cd08
   Frame=29   JointI=20   JointJ=29   IsCurved=No   GUID=d373ab2a-dbee-44e9-ada6-ccef1b4be245
   Frame=30   JointI=21   JointJ=30   IsCurved=No   GUID=add470ff-9d95-489b-9e65-76fa4351194b
   Frame=31   JointI=5   JointJ=14   IsCurved=No   GUID=6ada5f35-9ca7-4583-b318-fee2ddf1dfed
   Frame=32   JointI=6   JointJ=15   IsCurved=No   GUID=babc3f47-a197-46c4-a40b-d29752357ec1
   Frame=33   JointI=14   JointJ=23   IsCurved=No   GUID=b8698710-5bfe-4445-9b79-0b8b4be11dd8
   Frame=34   JointI=15   JointJ=24   IsCurved=No   GUID=f3ec50b3-d79b-48ec-9f77-ad3bc6c0ba8a
   Frame=35   JointI=23   JointJ=32   IsCurved=No   GUID=4dd84de8-d6c8-4162-b183-86c72022940d
   Frame=36   JointI=24   JointJ=33   IsCurved=No   GUID=2c85231c-1f92-46d3-9a59-fd22bfe2ab4b
   Frame=37   JointI=8   JointJ=17   IsCurved=No   GUID=3388d5d5-f5f6-49a4-b783-c7f4931ff19a
   Frame=38   JointI=9   JointJ=18   IsCurved=No   GUID=9ece936c-53b1-4e36-b68c-e92788272447
   Frame=39   JointI=17   JointJ=26   IsCurved=No   GUID=618a36b5-9c4b-4e80-a4ad-f5fd649c61bf
   Frame=40   JointI=18   JointJ=27   IsCurved=No   GUID=081888e0-6993-49ac-9a67-d3d6bf46e286
   Frame=41   JointI=26   JointJ=35   IsCurved=No   GUID=028dc2fd-def4-4f78-8fc8-7664d7971fee
   Frame=42   JointI=27   JointJ=36   IsCurved=No   GUID=edbfd20f-308c-4c84-9d32-2778c2b9a6df
   Frame=43   JointI=2   JointJ=5   IsCurved=No   GUID=f72a29a1-0a4c-45ea-8c98-004fe304ada1
   Frame=44   JointI=3   JointJ=6   IsCurved=No   GUID=65eb6e09-8760-4484-8d2e-b5a61ccb2bea
   Frame=45   JointI=5   JointJ=8   IsCurved=No   GUID=bb8f0d48-5966-4105-8baf-b16f99221eef
   Frame=46   JointI=6   JointJ=9   IsCurved=No   GUID=9f2bfd61-4a38-4ad0-ab35-5820a30d9cf5
   Frame=47   JointI=11   JointJ=14   IsCurved=No   GUID=9c9b3e37-e3e1-4058-a55a-eeeebb67be55
   Frame=48   JointI=12   JointJ=15   IsCurved=No   GUID=8c268bec-4410-479a-b471-742c3ee7d8e5
   Frame=49   JointI=14   JointJ=17   IsCurved=No   GUID=7e835876-f9f5-44a0-8b6c-2e8c2f7427c6
   Frame=50   JointI=15   JointJ=18   IsCurved=No   GUID=05974fee-0ecc-4879-883c-e311f83c6f52
   Frame=51   JointI=20   JointJ=23   IsCurved=No   GUID=98e9afc7-e347-4d42-9ae8-b4ba34722140
   Frame=52   JointI=21   JointJ=24   IsCurved=No   GUID=e7ecad6c-d2de-4ed0-bfd8-61d468b8927a
   Frame=53   JointI=23   JointJ=26   IsCurved=No   GUID=afe4f675-f661-4a25-a92c-b5d143951414
   Frame=54   JointI=24   JointJ=27   IsCurved=No   GUID=6eed6dd8-bf65-4f7c-9dda-630522266a56
   Frame=55   JointI=29   JointJ=32   IsCurved=No   GUID=b6b97f66-b8e6-42e7-8fff-4126c37afa3b
   Frame=56   JointI=30   JointJ=33   IsCurved=No   GUID=55b5a94e-fe53-4c0c-9a69-017712491066
   Frame=57   JointI=32   JointJ=35   IsCurved=No   GUID=db276634-c016-4a7b-99b9-00d68de54033
   Frame=58   JointI=33   JointJ=36   IsCurved=No   GUID=2c2a391b-9538-4a21-8fea-38e67cedc17f
 
TABLE:  "COORDINATE SYSTEMS"
   Name=GLOBAL   Type=Cartesian   X=0   Y=0   Z=0   AboutZ=0   AboutY=0   AboutX=0
 
TABLE:  "DATABASE DOCUMENTATION"
 
TABLE:  "DATABASE FORMAT TYPES"
   UnitsCurr=Yes   OverrideE=No
 
TABLE:  "FRAME AUTO MESH ASSIGNMENTS"
   Frame=1   AutoMesh=Yes   AtJoints=Yes   AtFrames=No   NumSegments=0   MaxLength=0   MaxDegrees=0
   Frame=2   AutoMesh=Yes   AtJoints=Yes   AtFrames=No   NumSegments=0   MaxLength=0   MaxDegrees=0
   Frame=3   AutoMesh=Yes   AtJoints=Yes   AtFrames=No   NumSegments=0   MaxLength=0   MaxDegrees=0
   Frame=4   AutoMesh=Yes   AtJoints=Yes   AtFrames=No   NumSegments=0   MaxLength=0   MaxDegrees=0
   Frame=5   AutoMesh=Yes   AtJoints=Yes   AtFrames=No   NumSegments=0   MaxLength=0   MaxDegrees=0
   Frame=6   AutoMesh=Yes   AtJoints=Yes   AtFrames=No   NumSegments=0   MaxLength=0   MaxDegrees=0
   Frame=7   AutoMesh=Yes   AtJoints=Yes   AtFrames=No   NumSegments=0   MaxLength=0   MaxDegrees=0
   Frame=8   AutoMesh=Yes   AtJoints=Yes   AtFrames=No   NumSegments=0   MaxLength=0   MaxDegrees=0
   Frame=9   AutoMesh=Yes   AtJoints=Yes   AtFrames=No   NumSegments=0   MaxLength=0   MaxDegrees=0
   Frame=10   AutoMesh=Yes   AtJoints=Yes   AtFrames=No   NumSegments=0   MaxLength=0   MaxDegrees=0
   Frame=11   AutoMesh=Yes   AtJoints=Yes   AtFrames=No   NumSegments=0   MaxLength=0   MaxDegrees=0
   Frame=12   AutoMesh=Yes   AtJoints=Yes   AtFrames=No   NumSegments=0   MaxLength=0   MaxDegrees=0
   Frame=13   AutoMesh=Yes   AtJoints=Yes   AtFrames=No   NumSegments=0   MaxLength=0   MaxDegrees=0
   Frame=14   AutoMesh=Yes   AtJoints=Yes   AtFrames=No   NumSegments=0   MaxLength=0   MaxDegrees=0
   Frame=15   AutoMesh=Yes   AtJoints=Yes   AtFrames=No   NumSegments=0   MaxLength=0   MaxDegrees=0
   Frame=16   AutoMesh=Yes   AtJoints=Yes   AtFrames=No   NumSegments=0   MaxLength=0   MaxDegrees=0
   Frame=17   AutoMesh=Yes   AtJoints=Yes   AtFrames=No   NumSegments=0   MaxLength=0   MaxDegrees=0
   Frame=18   AutoMesh=Yes   AtJoints=Yes   AtFrames=No   NumSegments=0   MaxLength=0   MaxDegrees=0
   Frame=19   AutoMesh=Yes   AtJoints=Yes   AtFrames=No   NumSegments=0   MaxLength=0   MaxDegrees=0
   Frame=20   AutoMesh=Yes   AtJoints=Yes   AtFrames=No   NumSegments=0   MaxLength=0   MaxDegrees=0
# ... 38 like lines cut
 
TABLE:  "FRAME DESIGN PROCEDURES"
   Frame=1   DesignProc="From Material"
   Frame=2   DesignProc="From Material"
   Frame=3   DesignProc="From Material"
   Frame=4   DesignProc="From Material"
   Frame=5   DesignProc="From Material"
   Frame=6   DesignProc="From Material"
   Frame=7   DesignProc="From Material"
   Frame=8   DesignProc="From Material"
   Frame=9   DesignProc="From Material"
   Frame=10   DesignProc="From Material"
   Frame=11   DesignProc="From Material"
   Frame=12   DesignProc="From Material"
   Frame=13   DesignProc="From Material"
   Frame=14   DesignProc="From Material"
   Frame=15   DesignProc="From Material"
   Frame=16   DesignProc="From Material"
   Frame=17   DesignProc="From Material"
   Frame=18   DesignProc="From Material"
   Frame=19   DesignProc="From Material"
   Frame=20   DesignProc="From Material"
# ... 38 like lines cut
 
TABLE:  "FRAME LOAD TRANSFER OPTIONS"
   Frame=1   Transfer=Yes
   Frame=2   Transfer=Yes
   Frame=3   Transfer=Yes
   Frame=4   Transfer=Yes
   Frame=5   Transfer=Yes
   Frame=6   Transfer=Yes
   Frame=7   Transfer=Yes
   Frame=8   Transfer=Yes
   Frame=9   Transfer=Yes
   Frame=10   Transfer=Yes
   Frame=11   Transfer=Yes
   Frame=12   Transfer=Yes
   Frame=13   Transfer=Yes
   Frame=14   Transfer=Yes
   Frame=15   Transfer=Yes
   Frame=16   Transfer=Yes
   Frame=17   Transfer=Yes
   Frame=18   Transfer=Yes
   Frame=19   Transfer=Yes
   Frame=20   Transfer=Yes
# ... 38 like lines cut
 
TABLE:  "FRAME OUTPUT STATION ASSIGNMENTS"
   Frame=1   StationType=MinNumSta   MinNumSta=3   AddAtElmInt=Yes   AddAtPtLoad=Yes
   Frame=2   StationType=MinNumSta   MinNumSta=3   AddAtElmInt=Yes   AddAtPtLoad=Yes
   Frame=3   StationType=MinNumSta   MinNumSta=3   AddAtElmInt=Yes   AddAtPtLoad=Yes
   Frame=4   StationType=MinNumSta   MinNumSta=3   AddAtElmInt=Yes   AddAtPtLoad=Yes
   Frame=5   StationType=MinNumSta   MinNumSta=3   AddAtElmInt=Yes   AddAtPtLoad=Yes
   Frame=6   StationType=MinNumSta   MinNumSta=3   AddAtElmInt=Yes   AddAtPtLoad=Yes
   Frame=7   StationType=MinNumSta   MinNumSta=3   AddAtElmInt=Yes   AddAtPtLoad=Yes
   Frame=8   StationType=MinNumSta   MinNumSta=3   AddAtElmInt=Yes   AddAtPtLoad=Yes
   Frame=9   StationType=MinNumSta   MinNumSta=3   AddAtElmInt=Yes   AddAtPtLoad=Yes
   Frame=10   StationType=MinNumSta   MinNumSta=3   AddAtElmInt=Yes   AddAtPtLoad=Yes
   Frame=11   StationType=MinNumSta   MinNumSta=3   AddAtElmInt=Yes   AddAtPtLoad=Yes
   Frame=12   StationType=MinNumSta   MinNumSta=3   AddAtElmInt=Yes   AddAtPtLoad=Yes
   Frame=13   StationType=MinNumSta   MinNumSta=3   AddAtElmInt=Yes   AddAtPtLoad=Yes
   Frame=14   StationType=MinNumSta   MinNumSta=3   AddAtElmInt=Yes   AddAtPtLoad=Yes
   Frame=15   StationType=MinNumSta   MinNumSta=3   AddAtElmInt=Yes   AddAtPtLoad=Yes
   Frame=16   StationType=MinNumSta   MinNumSta=3   AddAtElmInt=Yes   AddAtPtLoad=Yes
   Frame=17   StationType=MinNumSta   MinNumSta=3   AddAtElmInt=Yes   AddAtPtLoad=Yes
   Frame=18   StationType=MinNumSta   MinNumSta=3   AddAtElmInt=Yes   AddAtPtLoad=Yes
   Frame=19   StationType=MinNumSta   MinNumSta=3   AddAtElmInt=Yes   AddAtPtLoad=Yes
   Frame=20   StationType=MinNumSta   MinNumSta=3   AddAtElmInt=Yes   AddAtPtLoad=Yes
# ... 4 like lines cut
   Frame=25   StationType=MaxStaSpcg   MaxStaSpcg=0.5   AddAtElmInt=Yes   AddAtPtLoad=Yes
   Frame=26   StationType=MaxStaSpcg   MaxStaSpcg=0.5   AddAtElmInt=Yes   AddAtPtLoad=Yes
   Frame=27   StationType=MaxStaSpcg   MaxStaSpcg=0.5   AddAtElmInt=Yes   AddAtPtLoad=Yes
   Frame=28   StationType=MaxStaSpcg   MaxStaSpcg=0.5   AddAtElmInt=Yes   AddAtPtLoad=Yes
   Frame=29   StationType=MaxStaSpcg   MaxStaSpcg=0.5   AddAtElmInt=Yes   AddAtPtLoad=Yes
   Frame=30   StationType=MaxStaSpcg   MaxStaSpcg=0.5   AddAtElmInt=Yes   AddAtPtLoad=Yes
   Frame=31   StationType=MaxStaSpcg   MaxStaSpcg=0.5   AddAtElmInt=Yes   AddAtPtLoad=Yes
   Frame=32   StationType=MaxStaSpcg   MaxStaSpcg=0.5   AddAtElmInt=Yes   AddAtPtLoad=Yes
   Frame=33   StationType=MaxStaSpcg   MaxStaSpcg=0.5   AddAtElmInt=Yes   AddAtPtLoad=Yes
   Frame=34   StationType=MaxStaSpcg   MaxStaSpcg=0.5   AddAtElmInt=Yes   AddAtPtLoad=Yes
   Frame=35   StationType=MaxStaSpcg   MaxStaSpcg=0.5   AddAtElmInt=Yes   AddAtPtLoad=Yes
   Frame=36   StationType=MaxStaSpcg   MaxStaSpcg=0.5   AddAtElmInt=Yes   AddAtPtLoad=Yes
   Frame=37   StationType=MaxStaSpcg   MaxStaSpcg=0.5   AddAtElmInt=Yes   AddAtPtLoad=Yes
   Frame=38   StationType=MaxStaSpcg   MaxStaSpcg=0.5   AddAtElmInt=Yes   AddAtPtLoad=Yes
   Frame=39   StationType=MaxStaSpcg   MaxStaSpcg=0.5   AddAtElmInt=Yes   AddAtPtLoad=Yes
   Frame=40   StationType=MaxStaSpcg   MaxStaSpcg=0.5   AddAtElmInt=Yes   AddAtPtLoad=Yes
   Frame=41   StationType=MaxStaSpcg   MaxStaSpcg=0.5   AddAtElmInt=Yes   AddAtPtLoad=Yes
   Frame=42   StationType=MaxStaSpcg   MaxStaSpcg=0.5   AddAtElmInt=Yes   AddAtPtLoad=Yes
   Frame=43   StationType=MaxStaSpcg   MaxStaSpcg=0.5   AddAtElmInt=Yes   AddAtPtLoad=Yes
   Frame=44   StationType=MaxStaSpcg   MaxStaSpcg=0.5   AddAtElmInt=Yes   AddAtPtLoad=Yes
# ... 14 like lines cut
 
TABLE:  "FRAME SECTION ASSIGNMENTS"
   Frame=1   AutoSelect=N.A.   AnalSect=FSEC1   MatProp=Default
   Frame=2   AutoSelect=N.A.   AnalSect=FSEC1   MatProp=Default
   Frame=3   AutoSelect=N.A.   AnalSect=FSEC1   MatProp=Default
   Frame=4   AutoSelect=N.A.   AnalSect=FSEC1   MatProp=Default
   Frame=5   AutoSelect=N.A.   AnalSect=FSEC1   MatProp=Default
   Frame=6   AutoSelect=N.A.   AnalSect=FSEC1   MatProp=Default
   Frame=7   AutoSelect=N.A.   AnalSect=FSEC1   MatProp=Default
   Frame=8   AutoSelect=N.A.   AnalSect=FSEC1   MatProp=Default
   Frame=9   AutoSelect=N.A.   AnalSect=FSEC1   MatProp=Default
   Frame=10   AutoSelect=N.A.   AnalSect=FSEC1   MatProp=Default
   Frame=11   AutoSelect=N.A.   AnalSect=FSEC1   MatProp=Default
   Frame=12   AutoSelect=N.A.   AnalSect=FSEC1   MatProp=Default
   Frame=13   AutoSelect=N.A.   AnalSect=FSEC1   MatProp=Default
   Frame=14   AutoSelect=N.A.   AnalSect=FSEC1   MatProp=Default
   Frame=15   AutoSelect=N.A.   AnalSect=FSEC1   MatProp=Default
   Frame=16   AutoSelect=N.A.   AnalSect=FSEC1   MatProp=Default
   Frame=17   AutoSelect=N.A.   AnalSect=FSEC1   MatProp=Default
   Frame=18   AutoSelect=N.A.   AnalSect=FSEC1   MatProp=Default
   Frame=19   AutoSelect=N.A.   AnalSect=FSEC1   MatProp=Default
   Frame=20   AutoSelect=N.A.   AnalSect=FSEC1   MatProp=Default
# ... 38 like lines cut
 
TABLE:  "FRAME SECTION PROPERTIES 01 - GENERAL"
   SectionName=FSEC1   Material=S355   Shape="I/Wide Flange"   t3=0.3048   t2=0.127   tf=0.009652   tw=0.00635   t2b=0.127   tfb=0.009652   FilletRadius=0   Area=0.0042645076   TorsConst=9.65117678053953E-08   I33=6.5724174702235E-05 _
        I22=3.30125717301008E-06   I23=0   AS2=0.00193548   AS3=0.00204300666666667   S33=0.00043126098885981   S22=5.19883019371667E-05   Z33=0.0004911874950424   Z22=8.0716532115E-05   R33=0.124144683132414   R22=0.0278230817990979 _
        Color=Gray8Dark   FromFile=No   AMod=1   A2Mod=1   A3Mod=1   JMod=1   I2Mod=1   I3Mod=1   MMod=1   WMod=1   Notes="Added 11/07/2025 18:23:37"
 
TABLE:  "FRAME SECTION PROPERTIES 13 - TIME DEPENDENT"
   SectionName=FSEC1   TypeSize=Auto   AutoSFSize=1
 
TABLE:  "FUNCTION - PLOT FUNCTIONS"
   PlotFunc="Input Energy"   Type=Energy   Component=Input   Mode=All
 
TABLE:  "FUNCTION - POWER SPECTRAL DENSITY - USER"
   Name=UNIFPSD   Frequency=0   Value=1
   Name=UNIFPSD   Frequency=1   Value=1
 
TABLE:  "FUNCTION - RESPONSE SPECTRUM - USER"
   Name=UNIFRS   Period=0   Accel=1   FuncDamp=0.05
   Name=UNIFRS   Period=1   Accel=1
 
TABLE:  "FUNCTION - STEADY STATE - USER"
   Name=UNIFSS   Frequency=0   Value=1
   Name=UNIFSS   Frequency=1   Value=1
 
TABLE:  "FUNCTION - TIME HISTORY - USER"
   Name=RAMPTH   Time=0   Value=0
   Name=RAMPTH   Time=1   Value=1
   Name=RAMPTH   Time=4   Value=1
   Name=UNIFTH   Time=0   Value=1
   Name=UNIFTH   Time=1   Value=1
 
TABLE:  "GRID LINES"
   CoordSys=GLOBAL   AxisDir=X   GridID=A   XRYZCoord=-9   LineType=Primary   LineColor=Gray8Dark   Visible=Yes   BubbleLoc=End   AllVisible=Yes   BubbleSize=1.25
   CoordSys=GLOBAL   AxisDir=X   GridID=B   XRYZCoord=-3   LineType=Primary   LineColor=Gray8Dark   Visible=Yes   BubbleLoc=End
   CoordSys=GLOBAL   AxisDir=X   GridID=C   XRYZCoord=3   LineType=Primary   LineColor=Gray8Dark   Visible=Yes   BubbleLoc=End
   CoordSys=GLOBAL   AxisDir=X   GridID=D   XRYZCoord=9   LineType=Primary   LineColor=Gray8Dark   Visible=Yes   BubbleLoc=End
   CoordSys=GLOBAL   AxisDir=Y   GridID=1   XRYZCoord=-6   LineType=Primary   LineColor=Gray8Dark   Visible=Yes   BubbleLoc=Start
   CoordSys=GLOBAL   AxisDir=Y   GridID=2   XRYZCoord=0   LineType=Primary   LineColor=Gray8Dark   Visible=Yes   BubbleLoc=Start
   CoordSys=GLOBAL   AxisDir=Y   GridID=3   XRYZCoord=6   LineType=Primary   LineColor=Gray8Dark   Visible=Yes   BubbleLoc=Start
   CoordSys=GLOBAL   AxisDir=Z   GridID=Z1   XRYZCoord=0   LineType=Primary   LineColor=Gray8Dark   Visible=Yes   BubbleLoc=End
   CoordSys=GLOBAL   AxisDir=Z   GridID=Z2   XRYZCoord=3   LineType=Primary   LineColor=Gray8Dark   Visible=Yes   BubbleLoc=End
   CoordSys=GLOBAL   AxisDir=Z   GridID=Z3   XRYZCoord=6   LineType=Primary   LineColor=Gray8Dark   Visible=Yes   BubbleLoc=End
 
TABLE:  "GROUPS 1 - DEFINITIONS"
   GroupName=ALL   Selection=Yes   SectionCut=Yes   Steel=Yes   Concrete=Yes   Aluminum=Yes   ColdFormed=Yes   Stage=Yes   Bridge=Yes   AutoSeismic=No   AutoWind=No   SelDesSteel=No   SelDesAlum=No   SelDesCold=No   MassWeight=Yes   Color=Red
 
TABLE:  "JOINT COORDINATES"
   Joint=1   CoordSys=GLOBAL   CoordType=Cartesian   XorR=-9   Y=-6   Z=0   SpecialJt=No   GUID=72930333-aa31-4f84-be55-7cb912077667
   Joint=2   CoordSys=GLOBAL   CoordType=Cartesian   XorR=-9   Y=-6   Z=3   SpecialJt=No   GUID=2b8c53cd-e677-4063-b8c5-52738a188ff2
   Joint=3   CoordSys=GLOBAL   CoordType=Cartesian   XorR=-9   Y=-6   Z=6   SpecialJt=No   GUID=ed1887b5-6ba0-4bc2-929d-785baad258dd
   Joint=4   CoordSys=GLOBAL   CoordType=Cartesian   XorR=-9   Y=0   Z=0   SpecialJt=No   GUID=700bd131-cd92-463b-8007-d8ac9d16c5fd
   Joint=5   CoordSys=GLOBAL   CoordType=Cartesian   XorR=-9   Y=0   Z=3   SpecialJt=No   GUID=3155fb4c-f0bb-4d4c-a874-4766502ea81d
   Joint=6   CoordSys=GLOBAL   CoordType=Cartesian   XorR=-9   Y=0   Z=6   SpecialJt=No   GUID=d020ed5d-2a1c-4925-8a5b-0c5588ab51e7
   Joint=7   CoordSys=GLOBAL   CoordType=Cartesian   XorR=-9   Y=6   Z=0   SpecialJt=No   GUID=d0cf6d61-7564-41f6-931d-67081aff8a18
   Joint=8   CoordSys=GLOBAL   CoordType=Cartesian   XorR=-9   Y=6   Z=3   SpecialJt=No   GUID=0f923c48-e7f0-4092-b928-b4bccf5af601
   Joint=9   CoordSys=GLOBAL   CoordType=Cartesian   XorR=-9   Y=6   Z=6   SpecialJt=No   GUID=1c14d7ca-6a91-4bd9-b4c4-da12588e8376
   Joint=10   CoordSys=GLOBAL   CoordType=Cartesian   XorR=-3   Y=-6   Z=0   SpecialJt=No   GUID=1b25484a-cee6-4af8-9cf3-968efcdd920c
   Joint=11   CoordSys=GLOBAL   CoordType=Cartesian   XorR=-3   Y=-6   Z=3   SpecialJt=No   GUID=60a6849d-5437-4cbc-ac45-42081778ff3b
   Joint=12   CoordSys=GLOBAL   CoordType=Cartesian   XorR=-3   Y=-6   Z=6   SpecialJt=No   GUID=46118e87-86df-4356-bcd7-944d30308a85
   Joint=13   CoordSys=GLOBAL   CoordType=Cartesian   XorR=-3   Y=0   Z=0   SpecialJt=No   GUID=cd054af6-d21b-4c9c-9907-b6b2808f34eb
   Joint=14   CoordSys=GLOBAL   CoordType=Cartesian   XorR=-3   Y=0   Z=3   SpecialJt=No   GUID=5ea9a44b-03e0-4803-b853-07d7887ceb47
   Joint=15   CoordSys=GLOBAL   CoordType=Cartesian   XorR=-3   Y=0   Z=6   SpecialJt=No   GUID=a4503617-8ef3-449a-86f0-00218e5236ea
   Joint=16   CoordSys=GLOBAL   CoordType=Cartesian   XorR=-3   Y=6   Z=0   SpecialJt=No   GUID=bf14fa2d-1505-4cb2-8f02-c58cce071cab
   Joint=17   CoordSys=GLOBAL   CoordType=Cartesian   XorR=-3   Y=6   Z=3   SpecialJt=No   GUID=311534a3-a84c-442e-89be-5a9262d5be46
   Joint=18   CoordSys=GLOBAL   CoordType=Cartesian   XorR=-3   Y=6   Z=6   SpecialJt=No   GUID=aacb3a44-3aec-4e17-ba1f-f90b492ce405
   Joint=19   CoordSys=GLOBAL   CoordType=Cartesian   XorR=3   Y=-6   Z=0   SpecialJt=No   GUID=c6e48e47-1c01-4249-8aee-558eb5fcae57
   Joint=20   CoordSys=GLOBAL   CoordType=Cartesian   XorR=3   Y=-6   Z=3   SpecialJt=No   GUID=f42b39a8-4100-4b47-9b13-ab718e192401
   Joint=21   CoordSys=GLOBAL   CoordType=Cartesian   XorR=3   Y=-6   Z=6   SpecialJt=No   GUID=0ce781e0-1c53-4762-82b2-9882afca13b3
   Joint=22   CoordSys=GLOBAL   CoordType=Cartesian   XorR=3   Y=0   Z=0   SpecialJt=No   GUID=32febf5f-400a-4316-8d16-a09963ba399e
   Joint=23   CoordSys=GLOBAL   CoordType=Cartesian   XorR=3   Y=0   Z=3   SpecialJt=No   GUID=11ee3eb7-8bd6-4b37-b3fb-86bd853812e0
   Joint=24   CoordSys=GLOBAL   CoordType=Cartesian   XorR=3   Y=0   Z=6   SpecialJt=No   GUID=7da07472-298b-49aa-ac25-6c852c4557ac
   Joint=25   CoordSys=GLOBAL   CoordType=Cartesian   XorR=3   Y=6   Z=0   SpecialJt=No   GUID=d06c1b11-2b17-47b4-a228-83d9003e245f
   Joint=26   CoordSys=GLOBAL   CoordType=Cartesian   XorR=3   Y=6   Z=3   SpecialJt=No   GUID=394df733-9d18-4073-82e9-a3069f0916fd
   Joint=27   CoordSys=GLOBAL   CoordType=Cartesian   XorR=3   Y=6   Z=6   SpecialJt=No   GUID=97a83f1c-cdcc-4240-8f0a-a5713c74cca7
   Joint=28   CoordSys=GLOBAL   CoordType=Cartesian   XorR=9   Y=-6   Z=0   SpecialJt=No   GUID=bf114107-bfca-4623-a480-97e27715d7b0
   Joint=29   CoordSys=GLOBAL   CoordType=Cartesian   XorR=9   Y=-6   Z=3   SpecialJt=No   GUID=80134199-81b0-4461-aa80-1f21b147e1c9
   Joint=30   CoordSys=GLOBAL   CoordType=Cartesian   XorR=9   Y=-6   Z=6   SpecialJt=No   GUID=946ffb33-9349-4a70-96bd-b437911e73df
   Joint=31   CoordSys=GLOBAL   CoordType=Cartesian   XorR=9   Y=0   Z=0   SpecialJt=No   GUID=9c6b4361-530f-49c7-b0b2-f867af58caa2
   Joint=32   CoordSys=GLOBAL   CoordType=Cartesian   XorR=9   Y=0   Z=3   SpecialJt=No   GUID=936637c9-6faf-4fac-99ad-406eae5d0069
   Joint=33   CoordSys=GLOBAL   CoordType=Cartesian   XorR=9   Y=0   Z=6   SpecialJt=No   GUID=dc6727de-326a-4628-8f9d-ccc82432cdd8
   Joint=34   CoordSys=GLOBAL   CoordType=Cartesian   XorR=9   Y=6   Z=0   SpecialJt=No   GUID=b7e06bd3-5ca0-4010-a5cd-c2fbcdc5af54
   Joint=35   CoordSys=GLOBAL   CoordType=Cartesian   XorR=9   Y=6   Z=3   SpecialJt=No   GUID=46c7c6ae-75d0-480a-a8a5-61912b40f331
   Joint=36   CoordSys=GLOBAL   CoordType=Cartesian   XorR=9   Y=6   Z=6   SpecialJt=No   GUID=76e4b9b3-01b2-4455-a223-696d3639fdb4
 
TABLE:  "JOINT LOADS - FORCE"
   Joint=3   LoadPat=Setup_1   CoordSys=GLOBAL   F1=4   F2=5   F3=0   M1=0   M2=0   M3=0   GUID=d307be29-c02c-442d-a388-846175215712
   Joint=6   LoadPat=Setup_1   CoordSys=GLOBAL   F1=6   F2=7   F3=0   M1=0   M2=0   M3=0   GUID=246f866f-d6ae-4b7a-a5d3-a8fd06259c10
   Joint=12   LoadPat=References   CoordSys=GLOBAL   F1=1   F2=2   F3=0   M1=0   M2=0   M3=0   GUID=d9d70143-149a-40c4-afd7-dd04104fa21a
   Joint=15   LoadPat=References   CoordSys=GLOBAL   F1=0   F2=3   F3=0   M1=0   M2=0   M3=0   GUID=89c29bb4-2925-4644-b73e-4c026b7d5b82
   Joint=21   LoadPat=Setup_2   CoordSys=GLOBAL   F1=0   F2=8   F3=0   M1=0   M2=0   M3=0   GUID=1f3deda2-0377-40e7-a4df-9f015ad66465
   Joint=24   LoadPat=Setup_2   CoordSys=GLOBAL   F1=0   F2=9   F3=0   M1=0   M2=0   M3=0   GUID=8e5af718-b576-4d3e-9864-13c19585d881
   Joint=30   LoadPat=Setup_2   CoordSys=GLOBAL   F1=10   F2=0   F3=0   M1=0   M2=0   M3=0   GUID=6a066571-1667-4624-939e-8b279dd33863
   Joint=33   LoadPat=Setup_2   CoordSys=GLOBAL   F1=11   F2=0   F3=0   M1=0   M2=0   M3=0   GUID=b536cfc7-a1d7-462c-874b-1c9caba85947
 
TABLE:  "JOINT PATTERN DEFINITIONS"
   Pattern=Default
 
TABLE:  "JOINT RESTRAINT ASSIGNMENTS"
   Joint=1   U1=Yes   U2=Yes   U3=Yes   R1=No   R2=No   R3=No
   Joint=4   U1=Yes   U2=Yes   U3=Yes   R1=No   R2=No   R3=No
   Joint=7   U1=Yes   U2=Yes   U3=Yes   R1=No   R2=No   R3=No
   Joint=10   U1=Yes   U2=Yes   U3=Yes   R1=No   R2=No   R3=No
   Joint=13   U1=Yes   U2=Yes   U3=Yes   R1=No   R2=No   R3=No
   Joint=16   U1=Yes   U2=Yes   U3=Yes   R1=No   R2=No   R3=No
   Joint=19   U1=Yes   U2=Yes   U3=Yes   R1=No   R2=No   R3=No
   Joint=22   U1=Yes   U2=Yes   U3=Yes   R1=No   R2=No   R3=No
   Joint=25   U1=Yes   U2=Yes   U3=Yes   R1=No   R2=No   R3=No
   Joint=28   U1=Yes   U2=Yes   U3=Yes   R1=No   R2=No   R3=No
   Joint=31   U1=Yes   U2=Yes   U3=Yes   R1=No   R2=No   R3=No
   Joint=34   U1=Yes   U2=Yes   U3=Yes   R1=No   R2=No   R3=No
 
TABLE:  "LOAD CASE DEFINITIONS"
   Case=DEAD   Type=LinStatic   InitialCond=Zero   DesTypeOpt="Prog Det"   DesignType=Dead   DesActOpt="Prog Det"   DesignAct=Non-Composite   AutoType=None   RunCase=Yes   GUID=15ac15e2-57b5-41a6-837b-a02a4b1cde2c
   Case=MODAL   Type=LinModal   InitialCond=Zero   DesTypeOpt="Prog Det"   DesignType=Other   DesActOpt="Prog Det"   DesignAct=Other   AutoType=None   RunCase=Yes   GUID=bd23d607-cbc5-48f2-bd99-0b05b1ead021
   Case=References   Type=LinStatic   InitialCond=Zero   DesTypeOpt="Prog Det"   DesignType=Dead   DesActOpt="Prog Det"   DesignAct=Non-Composite   AutoType=None   RunCase=Yes   GUID=7548aa0e-4d70-4f78-ba1b-bed267c2cf5f
   Case=Setup_1   Type=LinStatic   InitialCond=Zero   DesTypeOpt="Prog Det"   DesignType=Dead   DesActOpt="Prog Det"   DesignAct=Non-Composite   AutoType=None   RunCase=Yes   GUID=4c16e8e3-4411-44b0-8817-c48541cae86d
   Case=Setup_2   Type=LinStatic   InitialCond=Zero   DesTypeOpt="Prog Det"   DesignType=Dead   DesActOpt="Prog Det"   DesignAct=Non-Composite   AutoType=None   RunCase=Yes   GUID=0bf2caa1-ec91-4ecf-927e-7c0fd29dfc1e
 
TABLE:  "LOAD PATTERN DEFINITIONS"
   LoadPat=DEAD   DesignType=Dead   SelfWtMult=1   GUID=d196deb0-46c9-432c-be93-c18d35995bfe
   LoadPat=References   DesignType=Dead   SelfWtMult=0   GUID=0cb7d1c8-3127-4d7a-a256-4a1920e5622b   Notes="Added 11/07/2025 18:24:14"
   LoadPat=Setup_1   DesignType=Dead   SelfWtMult=0   GUID=fe43707a-d12f-4d77-bf90-593bd30e438e   Notes="Added 11/07/2025 18:24:26"
   LoadPat=Setup_2   DesignType=Dead   SelfWtMult=0   GUID=7fc5ac7d-c8ca-4546-9c5a-35c7d8122fd7   Notes="Added 11/07/2025 18:24:30"
 
TABLE:  "MASS SOURCE"
   MassSource=MSSSRC1   Elements=Yes   Masses=Yes   Loads=No   IsDefault=Yes
 
TABLE:  "MATERIAL PROPERTIES 01 - GENERAL"
   Material=C30/37   Type=Concrete   Grade=C30/37   SymType=Isotropic   TempDepend=No   Color=Yellow   GUID=b7d5c4c9-bd77-4a4a-95a6-813c41b54909   Notes="EN 1992-1-1 per EN 206-1 C30/37 11/07/2025 18:23:34"
   Material=S355   Type=Steel   Grade=S355   SymType=Isotropic   TempDepend=No   Color=Magenta   Notes="EN 1993-1-1 per EN 10025-2 S355 11/07/2025 18:23:34"
 
TABLE:  "MATERIAL PROPERTIES 02 - BASIC MECHANICAL PROPERTIES"
   Material=C30/37   UnitWeight=24.99261766   UnitMass=2.5485377   E1=33000000   G12=13750000   U12=0.2   A1=1E-05
   Material=S355   UnitWeight=76.9728639422648   UnitMass=7.84904737995992   E1=210000000   G12=80769230.7692308   U12=0.3   A1=1.17E-05
 
TABLE:  "MATERIAL PROPERTIES 03A - STEEL DATA"
   Material=S355   Fy=355000   Fu=510000   EffFy=390500   EffFu=561000   SSCurveOpt=Simple   SSHysType=Kinematic   SHard=0.015   SMax=0.11   SRup=0.17   FinalSlope=-0.1   CoupModType="Von Mises"
 
TABLE:  "MATERIAL PROPERTIES 03B - CONCRETE DATA"
   Material=C30/37   Fc=30000   eFc=30000   LtWtConc=No   SSCurveOpt=Mander   SSHysType=Takeda   SFc=0.00181818   SCap=0.005   FinalSlope=-0.1   FAngle=0   DAngle=0   CoupModType="Modified Darwin-Pecknold"
 
TABLE:  "MATERIAL PROPERTIES 03J - COUPLED NONLINEAR VON MISES DATA"
   Material=S355   YieldStress=390500   LinIsoHard=No   LinKinHard=No   NLIsoSaHard=No
 
TABLE:  "MATERIAL PROPERTIES 06 - DAMPING PARAMETERS"
   Material=C30/37   ModalRatio=0   VisMass=0   VisStiff=0   HysMass=0   HysStiff=0
   Material=S355   ModalRatio=0   VisMass=0   VisStiff=0   HysMass=0   HysStiff=0
 
TABLE:  "MATERIAL PROPERTIES 09 - ACCEPTANCE CRITERIA"
   Material=C30/37   IOTens=0.01   LSTens=0.02   CPTens=0.05   IOComp=-0.003   LSComp=-0.006   CPComp=-0.015   IgnoreTens=Yes
   Material=S355   IOTens=0.01   LSTens=0.02   CPTens=0.05   IOComp=-0.005   LSComp=-0.01   CPComp=-0.02
 
TABLE:  "OPTIONS - COLORS - DISPLAY"
   DeviceType=Screen   Points=Yellow   LinesFrame=Yellow   LinesFrmDL=Yellow   LinesCable=Green   LinesTendon=Green   SpringLinks=Green   Restraints=Green   Releases=Green   Axes=Cyan   Text=Green   ShadowLines=Gray8Dark _
        GuideLines=Gray8Dark   Highlight=Red   Selection=White   AreaFillBot=Red   AreaFillTop=16744703   AreaFillSd=Red   AreaEdge=DarkRed   SolidF1=Red   SolidF2=Blue   SolidF3=Green   SolidF4=Yellow   SolidF5=White   SolidF6=Cyan _
        SolidEdge=DarkRed   Floor=Gray4   Background=Black   BGLowLeft=Black   BGLowRight=Black   BGUpRight=Black   Darkness=0
   DeviceType=Printer   Points=Gray8Dark   LinesFrame=Black   LinesFrmDL=Gray4   LinesCable=Black   LinesTendon=Black   SpringLinks=Gray8Dark   Restraints=Gray8Dark   Releases=Gray4   Axes=Black   Text=Black   ShadowLines=Gray4 _
        GuideLines=Gray4   Highlight=Black   Selection=Black   AreaFillBot=Gray4   AreaFillTop=Gray8Dark   AreaFillSd=Gray4   AreaEdge=Black   SolidF1=Gray1Light   SolidF2=Gray2   SolidF3=Gray3   SolidF4=Gray4   SolidF5=Gray5 _
        SolidF6=Gray6   SolidEdge=Black   Floor=Gray4   Background=White   BGLowLeft=White   BGLowRight=White   BGUpRight=White   Darkness=0.5
   DeviceType="Color Printer"   Points=Blue   LinesFrame=Blue   LinesFrmDL=Blue   LinesCable=Green   LinesTendon=Green   SpringLinks=Green   Restraints=Green   Releases=Green   Axes=Cyan   Text=Black   ShadowLines=Gray8Dark _
        GuideLines=Gray8Dark   Highlight=Red   Selection=10504778   AreaFillBot=Red   AreaFillTop=16744703   AreaFillSd=Red   AreaEdge=DarkRed   SolidF1=Red   SolidF2=Blue   SolidF3=Green   SolidF4=Yellow   SolidF5=White   SolidF6=Cyan _
        SolidEdge=DarkRed   Floor=Gray4   Background=White   BGLowLeft=White   BGLowRight=White   BGUpRight=White   Darkness=0.5
 
TABLE:  "OPTIONS - COLORS - OUTPUT"
   DeviceType=Screen   Contour1=13107400   Contour2=6553828   Contour3=Red   Contour4=16639   Contour5=Orange   Contour6=43775   Contour7=54527   Contour8=Yellow   Contour9=65408   Contour10=Green   Contour11=8453888   Contour12=Cyan _
        Contour13=16755200   Contour14=16733440   Contour15=Blue   Transpare=0.5   Ratio1=Cyan   Ratio2=Green   Ratio3=Yellow   Ratio4=Orange   Ratio5=Red   RatioNotD=Gray4   RatioNotC=Red   RatioVal1=0.5   RatioVal2=0.7   RatioVal3=0.9 _
        RatioVal4=1   DFillPos=Blue   DFillNeg=Red   DFillRPos=Green   DFillRNeg=Green
   DeviceType=Printer   Contour1=Black   Contour2=3158064   Contour3=4210752   Contour4=5263440   Contour5=6316128   Contour6=7368816   Contour7=Gray8Dark   Contour8=Gray7   Contour9=Gray6   Contour10=Gray5   Contour11=Gray4 _
        Contour12=Gray3   Contour13=Gray2   Contour14=Gray1Light   Contour15=White   Transpare=0   Ratio1=Gray2   Ratio2=Gray4   Ratio3=Gray8Dark   Ratio4=4210752   Ratio5=Black   RatioNotD=Gray4   RatioNotC=Black   RatioVal1=0.5 _
        RatioVal2=0.7   RatioVal3=0.9   RatioVal4=1   DFillPos=Gray8Dark   DFillNeg=Gray8Dark   DFillRPos=4210752   DFillRNeg=4210752
   DeviceType="Color Printer"   Contour1=13107400   Contour2=6553828   Contour3=Red   Contour4=16639   Contour5=Orange   Contour6=43775   Contour7=54527   Contour8=Yellow   Contour9=65408   Contour10=Green   Contour11=8453888 _
        Contour12=Cyan   Contour13=16755200   Contour14=16733440   Contour15=Blue   Transpare=0   Ratio1=Cyan   Ratio2=Green   Ratio3=Yellow   Ratio4=Orange   Ratio5=Red   RatioNotD=Gray4   RatioNotC=Red   RatioVal1=0.5   RatioVal2=0.7 _
        RatioVal3=0.9   RatioVal4=1   DFillPos=Blue   DFillNeg=Red   DFillRPos=Green   DFillRNeg=Green
 
TABLE:  "PREFERENCES - ALUMINUM DESIGN - AA 2015"
   THDesign=Envelopes   SRatioLimit=1   Provision=LRFD   LatFact=1.33333333333333   UseLatFact=No   Bridge=No   PhiTy=0.9   PhiTr=0.75   PhiC=0.9   PhiBo=0.9   PhiBr=0.75   PhiVo=0.9   PhiVr=0.75
 
TABLE:  "PREFERENCES - COLD FORMED DESIGN - AISI-16"
   THDesign=Envelopes   FrameType="Braced Frame"   SRatioLimit=1   SOMethod="General 2nd Order"   Provision=LRFD   LatFact=1.33333333333333   UseLatFact=No   PhiTy=0.9   PhiTr=0.75   PhiC=0.85   PhiB=0.9   PhiBPipe=0.95   PhiV=0.95
 
TABLE:  "PREFERENCES - CONCRETE DESIGN - ACI 318-19"
   THDesign=Envelopes   NumCurves=24   NumPoints=11   MinEccen=Yes   PatLLF=0.75   UFLimit=0.95   SeisCat=D   Rho=1   Sds=0.5   PhiT=0.9   PhiCTied=0.65   PhiCSpiral=0.75   PhiV=0.75   PhiVSeismic=0.6   PhiVJoint=0.85
 
TABLE:  "PREFERENCES - DIMENSIONAL"
   MergeTol=0.001   FineGrid=0.25   Nudge=0.25   SelectTol=3   SnapTol=12   SLineThick=1   PLineThick=4   MaxFont=8   MinFont=3   AutoZoom=10   ShrinkFact=70   TextFileLen=240
 
TABLE:  "PREFERENCES - STEEL DESIGN - AISC 360-16"
   THDesign=Envelopes   FrameType=SMF   PatLLF=0.75   SRatioLimit=0.95   MaxIter=1   SDC=D   SeisCode=No   SeisLoad=No   ImpFactor=1   SystemRho=1   SystemSds=0.5   SystemR=8   SystemCd=5.5   Omega0=3   Provision=LRFD _
        AMethod="Direct Analysis"   SOMethod="General 2nd Order"   SRMethod="Tau-b Fixed"   NLCoeff=0.002   PhiB=0.9   PhiC=0.9   PhiTY=0.9   PhiTF=0.75   PhiV=0.9   PhiVRolledI=1   PhiVT=0.9   PlugWeld=Yes   HSSWelding=ERW   HSSReduceT=No _
        CheckDefl=No   DLRat=120   SDLAndLLRat=120   LLRat=360   TotalRat=240   NetRat=240
 
TABLE:  "PROGRAM CONTROL"
   ProgramName=SAP2000   Version=23.3.1   CurrUnits="KN, m, C"   SteelCode="AISC 360-16"   ConcCode="ACI 318-19"   AlumCode="AA 2015"   ColdCode=AISI-16   RegenHinge=Yes
 
TABLE:  "PROJECT INFORMATION"
   Item="Company Name"   Data=UGR
   Item="Client Name"
   Item="Project Name"
   Item="Project Number"
   Item="Model Name"
   Item="Model Description"
   Item="Revision Number"
   Item="Frame Type"
   Item=Engineer
   Item=Checker
   Item=Supervisor
   Item="Issue Code"
   Item="Design Code"
 
TABLE:  "REBAR SIZES"
   RebarID=#2   Area=3.2258E-05   Diameter=0.00635
   RebarID=#3   Area=7.09675996154547E-05   Diameter=0.009525
   RebarID=#4   Area=0.000129032001922727   Diameter=0.0127
   RebarID=#5   Area=0.000199999601538181   Diameter=0.015875
   RebarID=#6   Area=0.000283870398461819   Diameter=0.01905
   RebarID=#7   Area=0.000387096015381813   Diameter=0.022225
   RebarID=#8   Area=0.000509676413843632   Diameter=0.0254
   RebarID=#9   Area=0.00064516   Diameter=0.0286512005329132
   RebarID=#10   Area=0.00081935318769455   Diameter=0.0322579995155334
   RebarID=#11   Area=0.00100644956308365   Diameter=0.0358139991521835
   RebarID=#14   Area=0.00145161   Diameter=0.0430021989583969
   RebarID=#18   Area=0.00258064   Diameter=0.0573277992248535
   RebarID=10M   Area=0.000100000002655387   Diameter=0.011300000667572
   RebarID=15M   Area=0.000200000005310774   Diameter=0.0159999999403954
   RebarID=20M   Area=0.000300000017579794   Diameter=0.0194999997854233
   RebarID=25M   Area=0.000500000022890568   Diameter=0.0252000016093254
   RebarID=30M   Area=0.000700000008974075   Diameter=0.0299000008821487
   RebarID=35M   Area=0.00100000004578114   Diameter=0.0357000011444092
   RebarID=45M   Area=0.00150000010712624   Diameter=0.0437000003576279
   RebarID=55M   Area=0.00250000007599831   Diameter=0.0564000033855438
   RebarID=6d   Area=2.83000004149973E-05   Diameter=0.006000000166893
   RebarID=8d   Area=5.02999995571375E-05   Diameter=0.00799999997019768
   RebarID=10d   Area=7.85000013634562E-05   Diameter=0.00999999977350235
   RebarID=12d   Area=0.000113000009249449   Diameter=0.012000000333786
   RebarID=14d   Area=0.000154000010818839   Diameter=0.0140000008940697
   RebarID=16d   Area=0.000201000015431643   Diameter=0.0159999999403954
   RebarID=20d   Area=0.000314000005453825   Diameter=0.0199999995470047
   RebarID=25d   Area=0.000491000008711815   Diameter=0.0250000001907349
   RebarID=26d   Area=0.000531000029001236   Diameter=0.0259999997138977
   RebarID=28d   Area=0.000616000043275356   Diameter=0.0280000017881393
   RebarID=N12   Area=0.000113000009249449   Diameter=0.012000000333786
   RebarID=N16   Area=0.000201000015431643   Diameter=0.0159999999403954
   RebarID=N20   Area=0.000314000005453825   Diameter=0.0199999995470047
   RebarID=N24   Area=0.000452000036997795   Diameter=0.024000000667572
   RebarID=N28   Area=0.000616000043275356   Diameter=0.0280000017881393
   RebarID=N32   Area=0.00080400006172657   Diameter=0.0319999998807907
   RebarID=N36   Area=0.00102000001747131   Diameter=0.036000001001358
 
END TABLE DATA
